[General]
cmdenv-config-name = 
cmdenv-event-banners = false
cmdenv-module-messages = false
cmdenv-express-mode = true
cmdenv-performance-display = false

record-eventlog = false

cmdenv-runs-to-execute = 
ned-path = ../../base;../../modules;../../examples;
network = ieee802154Narrow

sim-time-limit = 120.0405s

repeat = 100
seed-set = ${runnumber}

output-vector-file = ${resultdir}/${configname}-${seedset}.vec
output-scalar-file = ${resultdir}/${configname}-${seedset}.sca

**.scalar-recording = true
**.vector-recording = true

tkenv-default-config = 

##########################################################
#			WorldUtility parameters                      #
##########################################################
ieee802154Narrow.world.useTorus = false
ieee802154Narrow.world.use2D = true

##########################################################
#			         channel parameters                  #
##########################################################
ieee802154Narrow.connectionManager.sendDirect = false
ieee802154Narrow.connectionManager.pMax = 1.1mW
ieee802154Narrow.connectionManager.sat = -100dBm
ieee802154Narrow.connectionManager.alpha = 2.5
ieee802154Narrow.connectionManager.carrierFrequency = 2.4E+9Hz

################ PhyLayer parameters #####################
ieee802154Narrow.computer[*].nic.phy.usePropagationDelay = false
ieee802154Narrow.anchor[*].nic.phy.usePropagationDelay = false
ieee802154Narrow.node[*].nic.phy.usePropagationDelay = false
 
ieee802154Narrow.computer[*].nic.phy.analogueModels = xmldoc("config.xml")
#ieee802154Narrow.computer.nic.phy.decider = xmldoc("config.xml")
ieee802154Narrow.computer[*].nic.phy.sensitivity = -100dBm
ieee802154Narrow.computer[*].nic.phy.maxTXPower = 1.1mW
ieee802154Narrow.computer[*].nic.phy.initialRadioState = 0
ieee802154Narrow.computer[*].nic.phy.useThermalNoise = true
ieee802154Narrow.anchor[*].nic.phy.analogueModels = xmldoc("config.xml")
#ieee802154Narrow.anchor[*].nic.phy.decider = xmldoc("config.xml")
ieee802154Narrow.anchor[*].nic.phy.sensitivity = -100dBm
ieee802154Narrow.anchor[*].nic.phy.maxTXPower = 1.1mW
ieee802154Narrow.anchor[*].nic.phy.initialRadioState = 0
ieee802154Narrow.anchor[*].nic.phy.useThermalNoise = true
ieee802154Narrow.node[*].nic.phy.analogueModels = xmldoc("config.xml")
#ieee802154Narrow.node[*].nic.phy.decider = xmldoc("config.xml")
ieee802154Narrow.node[*].nic.phy.sensitivity = -100dBm
ieee802154Narrow.node[*].nic.phy.maxTXPower = 1.1mW
ieee802154Narrow.node[*].nic.phy.initialRadioState = 0
ieee802154Narrow.node[*].nic.phy.useThermalNoise = true

################ MAC layer parameters ####################
ieee802154Narrow.computer[*].nic.mac.txPower = 1mW
ieee802154Narrow.computer[*].nic.mac.notAffectedByHostState = true
ieee802154Narrow.computer[*].nic.mac.macMinBE = 3
ieee802154Narrow.computer[*].nic.mac.macMaxBE = 5
ieee802154Narrow.computer[*].nic.mac.macMaxCSMABackoffs = 4
ieee802154Narrow.computer[*].nic.mac.macAckWaitDuration = 0.000864s
ieee802154Narrow.computer[*].nic.mac.aUnitBackoffPeriod = 0.00032 s

ieee802154Narrow.anchor[*].nic.mac.txPower = 1mW
ieee802154Narrow.anchor[*].nic.mac.notAffectedByHostState = true
ieee802154Narrow.anchor[*].nic.mac.macMinBE = 3
ieee802154Narrow.anchor[*].nic.mac.macMaxBE = 5
ieee802154Narrow.anchor[*].nic.mac.macMaxCSMABackoffs = 4
ieee802154Narrow.anchor[*].nic.mac.macAckWaitDuration = 0.000864s
ieee802154Narrow.anchor[*].nic.mac.aUnitBackoffPeriod = 0.00032 s

ieee802154Narrow.node[*].nic.mac.txPower = 1mW
ieee802154Narrow.node[*].nic.mac.notAffectedByHostState = true
ieee802154Narrow.node[*].nic.mac.macMinBE = 3
ieee802154Narrow.node[*].nic.mac.macMaxBE = 5
ieee802154Narrow.node[*].nic.mac.macMaxCSMABackoffs = 4
ieee802154Narrow.node[*].nic.mac.macAckWaitDuration = 0.000864s
ieee802154Narrow.node[*].nic.mac.aUnitBackoffPeriod = 0.00032 s

ieee802154Narrow.**.nic.mac.headerLength = 104 bit # 2 + 1 + 2 + 2 + 2 + 2 + ... + 2 
################ NETW layer parameters ####################

ieee802154Narrow.**.net.debug = true
ieee802154Narrow.**.net.stats = false
ieee802154Narrow.**.net.headerLength = 0bit

################ App layer parameters ####################

# All of them except syncPacket have a + 6 bytes due to the extra bytes needed by the long address for Mobile Nodes, it corresponds to MAC layer but here is easier to add the offset    	
ieee802154Narrow.**.appl.syncPacketLength = 88bit			# Sync Packet Length, includes 1 byte status, 4 byte timestamp and 2 + 2 + 2 bytes possition
ieee802154Narrow.**.appl.normalReportPacketLength = 56bit 	# Rutinary Report Packet Length, includes 1 byte status and should be added 2 bytes x each listened Anchor, only exists in MN type 1 and 4
ieee802154Narrow.**.appl.type2ReportPacketLength = 56bit	# MN type 2 Report Packet Length, includes 1 byte status and should be added (2 + 2 + 2 = 6) position bytes x each position calculated, only MN type 2
ieee802154Narrow.**.appl.askReportPacketLength = 80bit		# When a report or extra report has the flag ASK activated, 10 bytes must be added to take into account the info sent about which we ask
ieee802154Narrow.**.appl.requestPacketLength = 8bit			# When a report or extra report has the flag Request activated, 1 byte must be added to take into account the info sent about which we ask
ieee802154Narrow.**.appl.broadcastPacketLength = 64bit		# Broadcast Packet Length, includes 1 byte status and 1 aditional byte information. This is the broadcast packet sent by MN type 3 and 4
ieee802154Narrow.**.appl.answerANtoMNPacketLength = 136bit	# Report sent by AN to MN when MN makes a request, includes 1 byte status and 10 bytes info.
ieee802154Narrow.**.appl.bcastMixANPacketLength = 72bit		# Report sent by AN when it receives broadcasts from a MN, sends a report per broadcast, includes 1 byte status and 2 bytes RSSI info.


ieee802154Narrow.**.appl.syncPacketsPerSyncPhase = 3 		# Number of slot periods (or packets in random mode) to send every sync phase
ieee802154Narrow.anchor[*].appl.phaseRepetitionNumber = -1 	# Number of full phases
ieee802154Narrow.anchor[*].appl.syncInSlot = true
ieee802154Narrow.anchor[*].appl.syncFirstMaxRandomTime = 6ms
ieee802154Narrow.anchor[*].appl.syncRestMaxRandomTimes = 6ms

ieee802154Narrow.world.bitrate = 250000

**.battery.debug = false
**.battery.nominal = 99999mAh
**.battery.capacity = 99999mAh
**.battery.voltage = 3.3V
**.battery.resolution = 0.1s
**.battery.publishDelta = 1
**.battery.publishTime = 0
**.battery.numDevices = 1

**.batteryStats.debug = false
**.batteryStats.detail = false
**.batteryStats.timeSeries = false

##########################################################
#			Simulation parameters                        #
##########################################################

ieee802154Narrow.**.coreDebug = true
ieee802154Narrow.playgroundSizeX = 700m
ieee802154Narrow.playgroundSizeY = 700m
ieee802154Narrow.playgroundSizeZ = 0m
ieee802154Narrow.numComputers = 1
ieee802154Narrow.numAnchors = 25
ieee802154Narrow.numNodes = 60

################ Mobility parameters #####################

ieee802154Narrow.anchor[*].mobility.minimumDistanceComputer = 0.0
# Next line calculates the minimum distance between Anchors depending on the size of the playground and the number of Anchors, it is multipied by 0.85 to reduce the distance ato a 85% not to have the worst situation
#ieee802154Narrow.anchor[*].mobility.minimumDistanceAnchor = sqrt(${sizeX}*${sizeY}/${numAnchors})*0.80 #120.0 160.0
ieee802154Narrow.anchor[*].mobility.minimumDistanceAnchor = 0.0
ieee802154Narrow.node[*].mobility.minimumDistanceNode = 70.0

ieee802154Narrow.computer[0].mobility.x = 700
ieee802154Narrow.computer[0].mobility.y = 75
ieee802154Narrow.computer[0].mobility.z = 0
ieee802154Narrow.anchor[*].mobility.x = -2
ieee802154Narrow.anchor[*].mobility.y = -2
ieee802154Narrow.anchor[*].mobility.z = 0
#ieee802154Narrow.node[1].mobility.x = 180
#ieee802154Narrow.node[1].mobility.y = 600
ieee802154Narrow.node[*].mobility.x = -1
ieee802154Narrow.node[*].mobility.y = -1
ieee802154Narrow.node[*].mobility.z = 0
#ieee802154Narrow.node[1].mobility.x = 350
#ieee802154Narrow.node[1].mobility.y = 75

##### Mobile Node Configuration ######
ieee802154Narrow.node[*].appl.offsetSyncPhases = 1
ieee802154Narrow.node[*].appl.activePhases = 2
ieee802154Narrow.node[*].appl.inactivePhases = 4
ieee802154Narrow.node[*].appl.reportPhases = 12
ieee802154Narrow.node[*].appl.makeExtraReport = true
ieee802154Narrow.node[*].appl.askFrequency = 2
ieee802154Narrow.node[*].appl.NumberOfBroadcasts = 3
ieee802154Narrow.node[*].appl.positionsToSave = 5
ieee802154Narrow.node[*].appl.centralized = true

[Config Test]
description = "Config to test with one node"
# Nodes mode 1
ieee802154Narrow.node[*].appl.nodeConfig = 4
ieee802154Narrow.node[*].appl.offsetPhases = 0
ieee802154Narrow.node[*].appl.offsetReportPhases = 0

[Config Config1]
description = "15 nodes of every kind, one of the worst cases"
# Nodes mode 1
ieee802154Narrow.node[0..14].appl.nodeConfig = 1
#Nodes mode 2
ieee802154Narrow.node[15..29].appl.nodeConfig = 2
#Nodes mode 3
ieee802154Narrow.node[30..44].appl.nodeConfig = 3
#Nodes mode 4
ieee802154Narrow.node[45..59].appl.nodeConfig = 4

ieee802154Narrow.node[*].appl.offsetSyncPhases = 0
ieee802154Narrow.node[*].appl.activePhases = 1
ieee802154Narrow.node[*].appl.inactivePhases = 0
ieee802154Narrow.node[*].appl.reportPhases = 4
ieee802154Narrow.node[*].appl.makeExtraReport = true
ieee802154Narrow.node[*].appl.askFrequency = 2
ieee802154Narrow.node[*].appl.NumberOfBroadcasts = 5
ieee802154Narrow.node[*].appl.positionsToSave = 5
ieee802154Narrow.node[*].appl.centralized = true
ieee802154Narrow.node[*].appl.offsetPhases = 0
ieee802154Narrow.node[*].appl.offsetReportPhases = 0

[Config Config2]
description = "6 nodes of mode 1 and 2, 15 mode 3 and 33 mode 4, one of the worst cases"

# Nodes mode 1
ieee802154Narrow.node[0..5].appl.nodeConfig = 1
#Nodes mode 2
ieee802154Narrow.node[6..11].appl.nodeConfig = 2
#Nodes mode 3
ieee802154Narrow.node[12..26].appl.nodeConfig = 3
#Nodes mode 4
ieee802154Narrow.node[27..59].appl.nodeConfig = 4

ieee802154Narrow.node[*].appl.offsetSyncPhases = 0
ieee802154Narrow.node[*].appl.activePhases = 1
ieee802154Narrow.node[*].appl.inactivePhases = 0
ieee802154Narrow.node[*].appl.reportPhases = 4
ieee802154Narrow.node[*].appl.makeExtraReport = true
ieee802154Narrow.node[*].appl.askFrequency = 2
ieee802154Narrow.node[*].appl.NumberOfBroadcasts = 5
ieee802154Narrow.node[*].appl.positionsToSave = 5
ieee802154Narrow.node[*].appl.centralized = true
ieee802154Narrow.node[*].appl.offsetPhases = 0
ieee802154Narrow.node[*].appl.offsetReportPhases = 0

[Config Config3]
description = "6 nodes of mode 1 and 2, 33 mode 3 and 15 mode 4, one of the worst cases"

# Nodes mode 1
ieee802154Narrow.node[0..5].appl.nodeConfig = 1
#Nodes mode 2
ieee802154Narrow.node[6..11].appl.nodeConfig = 2
#Nodes mode 3
ieee802154Narrow.node[27..59].appl.nodeConfig = 3
#Nodes mode 4
ieee802154Narrow.node[12..26].appl.nodeConfig = 4

ieee802154Narrow.node[*].appl.offsetSyncPhases = 0
ieee802154Narrow.node[*].appl.activePhases = 1
ieee802154Narrow.node[*].appl.inactivePhases = 0
ieee802154Narrow.node[*].appl.reportPhases = 4
ieee802154Narrow.node[*].appl.makeExtraReport = true
ieee802154Narrow.node[*].appl.askFrequency = 2
ieee802154Narrow.node[*].appl.NumberOfBroadcasts = 5
ieee802154Narrow.node[*].appl.positionsToSave = 5
ieee802154Narrow.node[*].appl.centralized = true
ieee802154Narrow.node[*].appl.offsetPhases = 0
ieee802154Narrow.node[*].appl.offsetReportPhases = 0

[Config Config4]
description = "33 mode 1, 15 mode 2 and 6 of modes 3 and 4, one of the worst cases"
#Nodes mode 1
ieee802154Narrow.node[27..59].appl.nodeConfig = 1
#Nodes mode 2
ieee802154Narrow.node[12..26].appl.nodeConfig = 2
# Nodes mode 3
ieee802154Narrow.node[0..5].appl.nodeConfig = 3
#Nodes mode 4
ieee802154Narrow.node[6..11].appl.nodeConfig = 4

ieee802154Narrow.node[*].appl.offsetSyncPhases = 0
ieee802154Narrow.node[*].appl.activePhases = 1
ieee802154Narrow.node[*].appl.inactivePhases = 0
ieee802154Narrow.node[*].appl.reportPhases = 4
ieee802154Narrow.node[*].appl.makeExtraReport = true
ieee802154Narrow.node[*].appl.askFrequency = 2
ieee802154Narrow.node[*].appl.NumberOfBroadcasts = 5
ieee802154Narrow.node[*].appl.positionsToSave = 5
ieee802154Narrow.node[*].appl.centralized = true
ieee802154Narrow.node[*].appl.offsetPhases = 0
ieee802154Narrow.node[*].appl.offsetReportPhases = 0

[Config Config5]
description = "15 mode 1, 33 mode 2 and 6 of modes 3 and 4, one of the worst cases"
#Nodes mode 1
ieee802154Narrow.node[12..26].appl.nodeConfig = 1
#Nodes mode 2
ieee802154Narrow.node[27..59].appl.nodeConfig = 2
# Nodes mode 3
ieee802154Narrow.node[0..5].appl.nodeConfig = 3
#Nodes mode 4
ieee802154Narrow.node[6..11].appl.nodeConfig = 4

ieee802154Narrow.node[*].appl.offsetSyncPhases = 0
ieee802154Narrow.node[*].appl.activePhases = 1
ieee802154Narrow.node[*].appl.inactivePhases = 0
ieee802154Narrow.node[*].appl.reportPhases = 4
ieee802154Narrow.node[*].appl.makeExtraReport = true
ieee802154Narrow.node[*].appl.askFrequency = 2
ieee802154Narrow.node[*].appl.NumberOfBroadcasts = 5
ieee802154Narrow.node[*].appl.positionsToSave = 5
ieee802154Narrow.node[*].appl.centralized = true
ieee802154Narrow.node[*].appl.offsetPhases = 0
ieee802154Narrow.node[*].appl.offsetReportPhases = 0

[Config Config6]
description = "15 nodes of every kind, distributed in time"
# Nodes mode 1
ieee802154Narrow.node[0..14].appl.nodeConfig = 1
ieee802154Narrow.node[0..4].appl.offsetPhases = 0
ieee802154Narrow.node[5..9].appl.offsetPhases = 2
ieee802154Narrow.node[10..14].appl.offsetPhases = 4
ieee802154Narrow.node[0..4].appl.offsetReportPhases = 2
ieee802154Narrow.node[5..9].appl.offsetReportPhases = 4
ieee802154Narrow.node[10..14].appl.offsetReportPhases = 6

#Nodes mode 2
ieee802154Narrow.node[15..29].appl.nodeConfig = 2
ieee802154Narrow.node[15..19].appl.offsetPhases = 0
ieee802154Narrow.node[20..24].appl.offsetPhases = 2
ieee802154Narrow.node[25..29].appl.offsetPhases = 4
ieee802154Narrow.node[15..19].appl.offsetReportPhases = 2
ieee802154Narrow.node[20..24].appl.offsetReportPhases = 4
ieee802154Narrow.node[25..29].appl.offsetReportPhases = 6

#Nodes mode 3
ieee802154Narrow.node[30..44].appl.nodeConfig = 3
ieee802154Narrow.node[30..34].appl.offsetPhases = 0
ieee802154Narrow.node[35..39].appl.offsetPhases = 2
ieee802154Narrow.node[40..44].appl.offsetPhases = 4
ieee802154Narrow.node[30..34].appl.offsetReportPhases = 2
ieee802154Narrow.node[35..39].appl.offsetReportPhases = 4
ieee802154Narrow.node[40..44].appl.offsetReportPhases = 6

#Nodes mode 4
ieee802154Narrow.node[45..59].appl.nodeConfig = 4
ieee802154Narrow.node[45..49].appl.offsetPhases = 0
ieee802154Narrow.node[50..54].appl.offsetPhases = 2
ieee802154Narrow.node[55..59].appl.offsetPhases = 4
ieee802154Narrow.node[45..49].appl.offsetReportPhases = 2
ieee802154Narrow.node[50..54].appl.offsetReportPhases = 4
ieee802154Narrow.node[55..59].appl.offsetReportPhases = 6

[Config Config7]
description = "6 nodes of mode 1 and 2, 15 mode 3 and 33 mode 4, distributed in time"

# Nodes mode 1
ieee802154Narrow.node[0..5].appl.nodeConfig = 1
ieee802154Narrow.node[0..1].appl.offsetPhases = 0
ieee802154Narrow.node[2..3].appl.offsetPhases = 2
ieee802154Narrow.node[4..5].appl.offsetPhases = 4
ieee802154Narrow.node[0..1].appl.offsetReportPhases = 2
ieee802154Narrow.node[2..3].appl.offsetReportPhases = 4
ieee802154Narrow.node[4..5].appl.offsetReportPhases = 6

#Nodes mode 2
ieee802154Narrow.node[6..11].appl.nodeConfig = 2
ieee802154Narrow.node[6..7].appl.offsetPhases = 0
ieee802154Narrow.node[8..9].appl.offsetPhases = 2
ieee802154Narrow.node[10..11].appl.offsetPhases = 4
ieee802154Narrow.node[6..7].appl.offsetReportPhases = 2
ieee802154Narrow.node[8..9].appl.offsetReportPhases = 4
ieee802154Narrow.node[10..11].appl.offsetReportPhases = 6

#Nodes mode 3
ieee802154Narrow.node[12..26].appl.nodeConfig = 3
ieee802154Narrow.node[12..16].appl.offsetPhases = 0
ieee802154Narrow.node[17..21].appl.offsetPhases = 2
ieee802154Narrow.node[22..26].appl.offsetPhases = 4
ieee802154Narrow.node[12..16].appl.offsetReportPhases = 2
ieee802154Narrow.node[17..21].appl.offsetReportPhases = 4
ieee802154Narrow.node[22..26].appl.offsetReportPhases = 6

#Nodes mode 4
ieee802154Narrow.node[27..59].appl.nodeConfig = 4
ieee802154Narrow.node[27..37].appl.offsetPhases = 0
ieee802154Narrow.node[38..48].appl.offsetPhases = 2
ieee802154Narrow.node[49..59].appl.offsetPhases = 4
ieee802154Narrow.node[27..37].appl.offsetReportPhases = 2
ieee802154Narrow.node[38..48].appl.offsetReportPhases = 4
ieee802154Narrow.node[49..59].appl.offsetReportPhases = 6

[Config Config8]
description = "6 nodes of mode 1 and 2, 33 mode 3 and 15 mode 4, distributed in time"

# Nodes mode 1
ieee802154Narrow.node[0..5].appl.nodeConfig = 1
ieee802154Narrow.node[0..1].appl.offsetPhases = 0
ieee802154Narrow.node[2..3].appl.offsetPhases = 2
ieee802154Narrow.node[4..5].appl.offsetPhases = 4
ieee802154Narrow.node[0..1].appl.offsetReportPhases = 2
ieee802154Narrow.node[2..3].appl.offsetReportPhases = 4
ieee802154Narrow.node[4..5].appl.offsetReportPhases = 6

#Nodes mode 2
ieee802154Narrow.node[6..11].appl.nodeConfig = 2
ieee802154Narrow.node[6..7].appl.offsetPhases = 0
ieee802154Narrow.node[8..9].appl.offsetPhases = 2
ieee802154Narrow.node[10..11].appl.offsetPhases = 4
ieee802154Narrow.node[6..7].appl.offsetReportPhases = 2
ieee802154Narrow.node[8..9].appl.offsetReportPhases = 4
ieee802154Narrow.node[10..11].appl.offsetReportPhases = 6

#Nodes mode 3
ieee802154Narrow.node[27..59].appl.nodeConfig = 3
ieee802154Narrow.node[27..37].appl.offsetPhases = 0
ieee802154Narrow.node[38..48].appl.offsetPhases = 2
ieee802154Narrow.node[49..59].appl.offsetPhases = 4
ieee802154Narrow.node[27..37].appl.offsetReportPhases = 2
ieee802154Narrow.node[38..48].appl.offsetReportPhases = 4
ieee802154Narrow.node[49..59].appl.offsetReportPhases = 6

#Nodes mode 4
ieee802154Narrow.node[12..26].appl.nodeConfig = 4
ieee802154Narrow.node[12..16].appl.offsetPhases = 0
ieee802154Narrow.node[17..21].appl.offsetPhases = 2
ieee802154Narrow.node[22..26].appl.offsetPhases = 4
ieee802154Narrow.node[12..16].appl.offsetReportPhases = 2
ieee802154Narrow.node[17..21].appl.offsetReportPhases = 4
ieee802154Narrow.node[22..26].appl.offsetReportPhases = 6

[Config Config9]
description = "33 mode 1, 15 mode 2 and 6 of modes 3 and 4, distributed in time"

#Nodes mode 1
ieee802154Narrow.node[27..59].appl.nodeConfig = 1
ieee802154Narrow.node[27..37].appl.offsetPhases = 0
ieee802154Narrow.node[38..48].appl.offsetPhases = 2
ieee802154Narrow.node[49..59].appl.offsetPhases = 4
ieee802154Narrow.node[27..37].appl.offsetReportPhases = 2
ieee802154Narrow.node[38..48].appl.offsetReportPhases = 4
ieee802154Narrow.node[49..59].appl.offsetReportPhases = 6

#Nodes mode 2
ieee802154Narrow.node[12..26].appl.nodeConfig = 2
ieee802154Narrow.node[12..16].appl.offsetPhases = 0
ieee802154Narrow.node[17..21].appl.offsetPhases = 2
ieee802154Narrow.node[22..26].appl.offsetPhases = 4
ieee802154Narrow.node[12..16].appl.offsetReportPhases = 2
ieee802154Narrow.node[17..21].appl.offsetReportPhases = 4
ieee802154Narrow.node[22..26].appl.offsetReportPhases = 6

# Nodes mode 3
ieee802154Narrow.node[0..5].appl.nodeConfig = 3
ieee802154Narrow.node[0..1].appl.offsetPhases = 0
ieee802154Narrow.node[2..3].appl.offsetPhases = 2
ieee802154Narrow.node[4..5].appl.offsetPhases = 4
ieee802154Narrow.node[0..1].appl.offsetReportPhases = 2
ieee802154Narrow.node[2..3].appl.offsetReportPhases = 4
ieee802154Narrow.node[4..5].appl.offsetReportPhases = 6

#Nodes mode 4
ieee802154Narrow.node[6..11].appl.nodeConfig = 4
ieee802154Narrow.node[6..7].appl.offsetPhases = 0
ieee802154Narrow.node[8..9].appl.offsetPhases = 2
ieee802154Narrow.node[10..11].appl.offsetPhases = 4
ieee802154Narrow.node[6..7].appl.offsetReportPhases = 2
ieee802154Narrow.node[8..9].appl.offsetReportPhases = 4
ieee802154Narrow.node[10..11].appl.offsetReportPhases = 6

[Config Config10]
description = "15 mode 1, 33 mode 2 and 6 of modes 3 and 4, distributed in time"

#Nodes mode 1
ieee802154Narrow.node[12..26].appl.nodeConfig = 1
ieee802154Narrow.node[12..16].appl.offsetPhases = 0
ieee802154Narrow.node[17..21].appl.offsetPhases = 2
ieee802154Narrow.node[22..26].appl.offsetPhases = 4
ieee802154Narrow.node[12..16].appl.offsetReportPhases = 2
ieee802154Narrow.node[17..21].appl.offsetReportPhases = 4
ieee802154Narrow.node[22..26].appl.offsetReportPhases = 6

#Nodes mode 2
ieee802154Narrow.node[27..59].appl.nodeConfig = 2
ieee802154Narrow.node[27..37].appl.offsetPhases = 0
ieee802154Narrow.node[38..48].appl.offsetPhases = 2
ieee802154Narrow.node[49..59].appl.offsetPhases = 4
ieee802154Narrow.node[27..37].appl.offsetReportPhases = 2
ieee802154Narrow.node[38..48].appl.offsetReportPhases = 4
ieee802154Narrow.node[49..59].appl.offsetReportPhases = 6

# Nodes mode 3
ieee802154Narrow.node[0..5].appl.nodeConfig = 3
ieee802154Narrow.node[0..1].appl.offsetPhases = 0
ieee802154Narrow.node[2..3].appl.offsetPhases = 2
ieee802154Narrow.node[4..5].appl.offsetPhases = 4
ieee802154Narrow.node[0..1].appl.offsetReportPhases = 2
ieee802154Narrow.node[2..3].appl.offsetReportPhases = 4
ieee802154Narrow.node[4..5].appl.offsetReportPhases = 6

#Nodes mode 4
ieee802154Narrow.node[6..11].appl.nodeConfig = 4
ieee802154Narrow.node[6..7].appl.offsetPhases = 0
ieee802154Narrow.node[8..9].appl.offsetPhases = 2
ieee802154Narrow.node[10..11].appl.offsetPhases = 4
ieee802154Narrow.node[6..7].appl.offsetReportPhases = 2
ieee802154Narrow.node[8..9].appl.offsetReportPhases = 4
ieee802154Narrow.node[10..11].appl.offsetReportPhases = 6
